Alim_Meia_Ponte_5_REDUZIDO/OBSOLETOS/CargasBT_DU01_2021126072_5002086_NTMBSR1PVTTR_MEDIA_AJUSTADA.dss
! Criação da seção de cargas BT AJUSTADAS
New "Load.M2_trf_5286699a" bus1="82034475286699.1.2.3.4" phases=3 conn=Wye model=3 kv=0.380 kw=0.405389363420036 kvar=0.173831896895871 daily="CURVA" status=variable vmaxpu=1.5 vminpu=0.92
New "Load.M2_trf_5286707a" bus1="82034835286707.1.2.3.4" phases=3 conn=Wye model=3 kv=0.380 kw=20.052047936694 kvar=8.60830609881913 daily="CURVA" status=variable vmaxpu=1.5 vminpu=0.92
New "Load.M2_trf_5286708a" bus1="82034845286708.1.2.3.4" phases=3 conn=Wye model=3 kv=0.380 kw=1.76186476072819 kvar=0.764361282819509 daily="CURVA" status=variable vmaxpu=1.5 vminpu=0.92
New "Load.M2_trf_5286718a" bus1="82053655286718.1.2.3.4" phases=3 conn=Wye model=3 kv=0.380 kw=3.45523324597505 kvar=1.43528560841133 daily="CURVA" status=variable vmaxpu=1.5 vminpu=0.92
New "Load.M2_trf_5286787a" bus1="82023305286787.1.2.3.4" phases=3 conn=Wye model=3 kv=0.380 kw=44.8128304706051 kvar=18.6039419601603 daily="CURVA" status=variable vmaxpu=1.5 vminpu=0.92
New "Load.M2_trf_5286788a" bus1="82023395286788.1.2.3.4" phases=3 conn=Wye model=3 kv=0.380 kw=73.7933154748338 kvar=30.0401187982687 daily="CURVA" status=variable vmaxpu=1.5 vminpu=0.92
New "Load.M2_trf_5286789a" bus1="82022295286789.1.2.3.4" phases=3 conn=Wye model=3 kv=0.380 kw=29.4037790868283 kvar=12.1704751102318 daily="CURVA" status=variable vmaxpu=1.5 vminpu=0.92
New "Load.M2_trf_5286790a" bus1="82022455286790.1.2.3.4" phases=3 conn=Wye model=3 kv=0.380 kw=46.7094597123517 kvar=19.4980228286966 daily="CURVA" status=variable vmaxpu=1.5 vminpu=0.92
New "Load.M2_trf_5286791a" bus1="82022605286791.1.2.3.4" phases=3 conn=Wye model=3 kv=0.380 kw=53.9680275654443 kvar=22.3515260804093 daily="CURVA" status=variable vmaxpu=1.5 vminpu=0.92
New "Load.M2_trf_5286792a" bus1="82019965286792.1.2.3.4" phases=3 conn=Wye model=3 kv=0.380 kw=44.6192741238079 kvar=18.4172875611029 daily="CURVA" status=variable vmaxpu=1.5 vminpu=0.92
New "Load.M2_trf_5286793a" bus1="82020055286793.1.2.3.4" phases=3 conn=Wye model=3 kv=0.380 kw=27.1344376259054 kvar=11.2225550342363 daily="CURVA" status=variable vmaxpu=1.5 vminpu=0.92
New "Load.M2_trf_5286794a" bus1="82020175286794.1.2.3.4" phases=3 conn=Wye model=3 kv=0.380 kw=66.0839643414159 kvar=27.3520602481018 daily="CURVA" status=variable vmaxpu=1.5 vminpu=0.92
New "Load.M2_trf_5286795a" bus1="82020405286795.1.2.3.4" phases=3 conn=Wye model=3 kv=0.380 kw=47.3457601269348 kvar=19.6948906690984 daily="CURVA" status=variable vmaxpu=1.5 vminpu=0.92
New "Load.M2_trf_5286796a" bus1="82020555286796.1.2.3.4" phases=3 conn=Wye model=3 kv=0.380 kw=36.4744620844138 kvar=15.1013372476957 daily="CURVA" status=variable vmaxpu=1.5 vminpu=0.92
New "Load.M2_trf_5286797a" bus1="82020675286797.1.2.3.4" phases=3 conn=Wye model=3 kv=0.380 kw=23.3779623215367 kvar=9.71819942410976 daily="CURVA" status=variable vmaxpu=1.5 vminpu=0.92
New "Load.M2_trf_5286798a" bus1="82021885286798.1.2.3.4" phases=3 conn=Wye model=3 kv=0.380 kw=27.3827644047006 kvar=11.338275915727 daily="CURVA" status=variable vmaxpu=1.5 vminpu=0.92
New "Load.M2_trf_5286799a" bus1="82021995286799.1.2.3.4" phases=3 conn=Wye model=3 kv=0.380 kw=55.897825551802 kvar=23.0385118616115 daily="CURVA" status=variable vmaxpu=1.5 vminpu=0.92
New "Load.M2_trf_5286800a" bus1="82024325286800.1.2.3.4" phases=3 conn=Wye model=3 kv=0.380 kw=47.9716060686015 kvar=19.8549178198643 daily="CURVA" status=variable vmaxpu=1.5 vminpu=0.92
New "Load.M2_trf_5286801a" bus1="82022225286801.1.2.3.4" phases=3 conn=Wye model=3 kv=0.380 kw=33.9425402989092 kvar=14.0571646055584 daily="CURVA" status=variable vmaxpu=1.5 vminpu=0.92
New "Load.M2_trf_5286802a" bus1="82021615286802.1.2.3.4" phases=3 conn=Wye model=3 kv=0.380 kw=29.0201410912608 kvar=11.967545432086 daily="CURVA" status=variable vmaxpu=1.5 vminpu=0.92
New "Load.M2_trf_5286803a" bus1="82036745286803.1.2.3.4" phases=3 conn=Wye model=3 kv=0.380 kw=55.6845721961986 kvar=22.6674620418392 daily="CURVA" status=variable vmaxpu=1.5 vminpu=0.92
New "Load.M2_trf_5286804a" bus1="82033055286804.1.2.3.4" phases=3 conn=Wye model=3 kv=0.380 kw=51.2258697352658 kvar=20.8361894858432 daily="CURVA" status=variable vmaxpu=1.5 vminpu=0.92
New "Load.M2_trf_5286805a" bus1="82033395286805.1.2.3.4" phases=3 conn=Wye model=3 kv=0.380 kw=34.4208791542866 kvar=14.1101828000659 daily="CURVA" status=variable vmaxpu=1.5 vminpu=0.92
New "Load.M2_trf_5286806a" bus1="82024965286806.1.2.3.4" phases=3 conn=Wye model=3 kv=0.380 kw=44.3458303579934 kvar=18.5471022063812 daily="CURVA" status=variable vmaxpu=1.5 vminpu=0.92
New "Load.M2_trf_5286807a" bus1="90855665286807.1.2.3.4" phases=3 conn=Wye model=3 kv=0.380 kw=62.3196862417035 kvar=25.7181244488195 daily="CURVA" status=variable vmaxpu=1.5 vminpu=0.92
New "Load.M2_trf_5286808a" bus1="82027905286808.1.2.3.4" phases=3 conn=Wye model=3 kv=0.380 kw=63.0183397934424 kvar=25.5879323431648 daily="CURVA" status=variable vmaxpu=1.5 vminpu=0.92
New "Load.M2_trf_5286809a" bus1="82028045286809.1.2.3.4" phases=3 conn=Wye model=3 kv=0.380 kw=44.0256252258354 kvar=18.0978526149094 daily="CURVA" status=variable vmaxpu=1.5 vminpu=0.92
New "Load.M2_trf_5286810a" bus1="82028035286810.1.2.3.4" phases=3 conn=Wye model=3 kv=0.380 kw=71.8934457434324 kvar=30.0218894714263 daily="CURVA" status=variable vmaxpu=1.5 vminpu=0.92
New "Load.M2_trf_5286811a" bus1="82026685286811.1.2.3.4" phases=3 conn=Wye model=3 kv=0.380 kw=54.2854098168444 kvar=22.4528722428252 daily="CURVA" status=variable vmaxpu=1.5 vminpu=0.92
New "Load.M2_trf_5286812a" bus1="82026915286812.1.2.3.4" phases=3 conn=Wye model=3 kv=0.380 kw=93.8793558375779 kvar=39.0074886750883 daily="CURVA" status=variable vmaxpu=1.5 vminpu=0.92
New "Load.M2_trf_5286813a" bus1="82028365286813.1.2.3.4" phases=3 conn=Wye model=3 kv=0.380 kw=25.237012867825 kvar=10.4018429820147 daily="CURVA" status=variable vmaxpu=1.5 vminpu=0.92
New "Load.M2_trf_5286814a" bus1="82027655286814.1.2.3.4" phases=3 conn=Wye model=3 kv=0.380 kw=56.7910319752806 kvar=23.4333538900187 daily="CURVA" status=variable vmaxpu=1.5 vminpu=0.92
New "Load.M2_trf_5286815a" bus1="82027735286815.1.2.3.4" phases=3 conn=Wye model=3 kv=0.380 kw=64.6226537637902 kvar=26.7605412167467 daily="CURVA" status=variable vmaxpu=1.5 vminpu=0.92
New "Load.M2_trf_5286816a" bus1="82029355286816.1.2.3.4" phases=3 conn=Wye model=3 kv=0.380 kw=52.9609781901296 kvar=22.0690478192221 daily="CURVA" status=variable vmaxpu=1.5 vminpu=0.92
New "Load.M2_trf_5286817a" bus1="82029275286817.1.2.3.4" phases=3 conn=Wye model=3 kv=0.380 kw=33.4394388336407 kvar=13.738454397339 daily="CURVA" status=variable vmaxpu=1.5 vminpu=0.92
New "Load.M2_trf_5286818a" bus1="82028855286818.1.2.3.4" phases=3 conn=Wye model=3 kv=0.380 kw=21.325328114059 kvar=8.73977416029709 daily="CURVA" status=variable vmaxpu=1.5 vminpu=0.92
New "Load.M2_trf_5286819a" bus1="82027135286819.1.2.3.4" phases=3 conn=Wye model=3 kv=0.380 kw=56.8837867917507 kvar=23.5045182310538 daily="CURVA" status=variable vmaxpu=1.5 vminpu=0.92
New "Load.M2_trf_5286820a" bus1="82026625286820.1.2.3.4" phases=3 conn=Wye model=3 kv=0.380 kw=38.1896044242221 kvar=15.6670250254407 daily="CURVA" status=variable vmaxpu=1.5 vminpu=0.92
New "Load.M2_trf_5286821a" bus1="82025745286821.1.2.3.4" phases=3 conn=Wye model=3 kv=0.380 kw=76.1643450020182 kvar=31.7081741088572 daily="CURVA" status=variable vmaxpu=1.5 vminpu=0.92
New "Load.M2_trf_5286828a" bus1="82042655286828.1.2.3.4" phases=3 conn=Wye model=3 kv=0.380 kw=41.3848278502737 kvar=17.6193040893349 daily="CURVA" status=variable vmaxpu=1.5 vminpu=0.92
New "Load.M2_trf_5286829a" bus1="81490995286829.1.2.3.4" phases=3 conn=Wye model=3 kv=0.380 kw=23.4570200724372 kvar=9.7646671207329 daily="CURVA" status=variable vmaxpu=1.5 vminpu=0.92
New "Load.M2_trf_5286830a" bus1="81460505286830.1.2.3.4" phases=3 conn=Wye model=3 kv=0.380 kw=49.5711836482434 kvar=20.9585646270175 daily="CURVA" status=variable vmaxpu=1.5 vminpu=0.92
New "Load.M2_trf_5286831a" bus1="82043025286831.1.2.3.4" phases=3 conn=Wye model=3 kv=0.380 kw=41.1801958804568 kvar=17.1188745171834 daily="CURVA" status=variable vmaxpu=1.5 vminpu=0.92
New "Load.M2_trf_5286832a" bus1="82042575286832.1.2.3.4" phases=3 conn=Wye model=3 kv=0.380 kw=34.0305321073325 kvar=14.0222687513095 daily="CURVA" status=variable vmaxpu=1.5 vminpu=0.92
New "Load.M2_trf_5286833a" bus1="82041995286833.1.2.3.4" phases=3 conn=Wye model=3 kv=0.380 kw=45.0673595285952 kvar=18.5177602704256 daily="CURVA" status=variable vmaxpu=1.5 vminpu=0.92
New "Load.M2_trf_5286834a" bus1="82038095286834.1.2.3.4" phases=3 conn=Wye model=3 kv=0.380 kw=56.1506891143888 kvar=23.3661583053411 daily="CURVA" status=variable vmaxpu=1.5 vminpu=0.92
New "Load.M2_trf_5286835a" bus1="82038115286835.1.2.3.4" phases=3 conn=Wye model=3 kv=0.380 kw=46.9179762926698 kvar=19.389165294274 daily="CURVA" status=variable vmaxpu=1.5 vminpu=0.92
New "Load.M2_trf_5286836a" bus1="82041105286836.1.2.3.4" phases=3 conn=Wye model=3 kv=0.380 kw=29.9776654289574 kvar=12.3361899305318 daily="CURVA" status=variable vmaxpu=1.5 vminpu=0.92
New "Load.M2_trf_5286837a" bus1="82041215286837.1.2.3.4" phases=3 conn=Wye model=3 kv=0.380 kw=16.5164576965569 kvar=6.86676404513054 daily="CURVA" status=variable vmaxpu=1.5 vminpu=0.92
New "Load.M2_trf_5286838a" bus1="82041905286838.1.2.3.4" phases=3 conn=Wye model=3 kv=0.380 kw=31.6017861682583 kvar=13.0373114609741 daily="CURVA" status=variable vmaxpu=1.5 vminpu=0.92
New "Load.M2_trf_5286839a" bus1="82038825286839.1.2.3.4" phases=3 conn=Wye model=3 kv=0.380 kw=45.7031841120619 kvar=18.9588555046348 daily="CURVA" status=variable vmaxpu=1.5 vminpu=0.92
New "Load.M2_trf_5286840a" bus1="82037555286840.1.2.3.4" phases=3 conn=Wye model=3 kv=0.380 kw=65.1506647474598 kvar=27.1718038350901 daily="CURVA" status=variable vmaxpu=1.5 vminpu=0.92
New "Load.M2_trf_5286841a" bus1="82039455286841.1.2.3.4" phases=3 conn=Wye model=3 kv=0.380 kw=39.2675737058467 kvar=16.1903503105183 daily="CURVA" status=variable vmaxpu=1.5 vminpu=0.92
New "Load.M2_trf_5286842a" bus1="82039695286842.1.2.3.4" phases=3 conn=Wye model=3 kv=0.380 kw=42.3230287962255 kvar=17.420693773801 daily="CURVA" status=variable vmaxpu=1.5 vminpu=0.92
New "Load.M2_trf_5286843a" bus1="82042105286843.1.2.3.4" phases=3 conn=Wye model=3 kv=0.380 kw=32.2763961026125 kvar=13.3524742551641 daily="CURVA" status=variable vmaxpu=1.5 vminpu=0.92
New "Load.M2_trf_5286844a" bus1="82042165286844.1.2.3.4" phases=3 conn=Wye model=3 kv=0.380 kw=29.8024446144808 kvar=12.3213854439987 daily="CURVA" status=variable vmaxpu=1.5 vminpu=0.92
New "Load.M2_trf_5286845a" bus1="82042275286845.1.2.3.4" phases=3 conn=Wye model=3 kv=0.380 kw=41.0223091360664 kvar=16.8752187484894 daily="CURVA" status=variable vmaxpu=1.5 vminpu=0.92
New "Load.M2_trf_5286846a" bus1="82041545286846.1.2.3.4" phases=3 conn=Wye model=3 kv=0.380 kw=31.967990668893 kvar=13.136996471609 daily="CURVA" status=variable vmaxpu=1.5 vminpu=0.92
New "Load.M2_trf_5286857a" bus1="82062475286857.1.2.3.4" phases=3 conn=Wye model=3 kv=0.380 kw=56.2107318734055 kvar=23.1370575026421 daily="CURVA" status=variable vmaxpu=1.5 vminpu=0.92
New "Load.M2_trf_5286858a" bus1="82064145286858.1.2.3.4" phases=3 conn=Wye model=3 kv=0.380 kw=39.7923611420365 kvar=16.417040446768 daily="CURVA" status=variable vmaxpu=1.5 vminpu=0.92
New "Load.M2_trf_5286860a" bus1="82065235286860.1.2.3.4" phases=3 conn=Wye model=3 kv=0.380 kw=26.7223086202816 kvar=11.0438029153354 daily="CURVA" status=variable vmaxpu=1.5 vminpu=0.92
New "Load.M2_trf_5286861a" bus1="82064065286861.1.2.3.4" phases=3 conn=Wye model=3 kv=0.380 kw=31.4719384405526 kvar=12.9677858401915 daily="CURVA" status=variable vmaxpu=1.5 vminpu=0.92
New "Load.M2_trf_5286862a" bus1="82065285286862.1.2.3.4" phases=3 conn=Wye model=3 kv=0.380 kw=45.053381515456 kvar=18.4910389322263 daily="CURVA" status=variable vmaxpu=1.5 vminpu=0.92
New "Load.M2_trf_5286863a" bus1="82064825286863.1.2.3.4" phases=3 conn=Wye model=3 kv=0.380 kw=35.5534604411186 kvar=14.6963924217144 daily="CURVA" status=variable vmaxpu=1.5 vminpu=0.92
New "Load.M2_trf_5286864a" bus1="82064425286864.1.2.3.4" phases=3 conn=Wye model=3 kv=0.380 kw=36.1116533906913 kvar=14.912220603038 daily="CURVA" status=variable vmaxpu=1.5 vminpu=0.92
New "Load.M2_trf_5286865a" bus1="82065005286865.1.2.3.4" phases=3 conn=Wye model=3 kv=0.380 kw=35.4128337041904 kvar=14.582518196887 daily="CURVA" status=variable vmaxpu=1.5 vminpu=0.92
New "Load.M2_trf_5286866a" bus1="82063385286866.1.2.3.4" phases=3 conn=Wye model=3 kv=0.380 kw=45.3814361855401 kvar=18.686044474151 daily="CURVA" status=variable vmaxpu=1.5 vminpu=0.92
New "Load.M2_trf_5286867a" bus1="82044385286867.1.2.3.4" phases=3 conn=Wye model=3 kv=0.380 kw=42.7887042693829 kvar=17.4821836224431 daily="CURVA" status=variable vmaxpu=1.5 vminpu=0.92
New "Load.M2_trf_5286871a" bus1="82055725286871.1.2.3.4" phases=3 conn=Wye model=3 kv=0.380 kw=30.4859253690138 kvar=12.5221429006863 daily="CURVA" status=variable vmaxpu=1.5 vminpu=0.92
New "Load.M2_trf_5286872a" bus1="82054825286872.1.2.3.4" phases=3 conn=Wye model=3 kv=0.380 kw=28.7945764893302 kvar=11.6564350812364 daily="CURVA" status=variable vmaxpu=1.5 vminpu=0.92
New "Load.M2_trf_5286890a" bus1="82056915286890.1.2.3.4" phases=3 conn=Wye model=3 kv=0.380 kw=40.2045830875588 kvar=16.6013810449652 daily="CURVA" status=variable vmaxpu=1.5 vminpu=0.92
New "Load.M2_trf_5286891a" bus1="82056385286891.1.2.3.4" phases=3 conn=Wye model=3 kv=0.380 kw=39.9340716553015 kvar=16.5341109243348 daily="CURVA" status=variable vmaxpu=1.5 vminpu=0.92
New "Load.M2_trf_5286914a" bus1="82053635286914.1.2.3.4" phases=3 conn=Wye model=3 kv=0.380 kw=44.4938680491121 kvar=18.3133529739108 daily="CURVA" status=variable vmaxpu=1.5 vminpu=0.92
New "Load.M2_trf_5286915a" bus1="82054535286915.1.2.3.4" phases=3 conn=Wye model=3 kv=0.380 kw=37.0001686553022 kvar=15.1442451255588 daily="CURVA" status=variable vmaxpu=1.5 vminpu=0.92
New "Load.M2_trf_5286916a" bus1="82054235286916.1.2.3.4" phases=3 conn=Wye model=3 kv=0.380 kw=47.9118232887989 kvar=19.6191053104557 daily="CURVA" status=variable vmaxpu=1.5 vminpu=0.92
New "Load.M2_trf_5286917a" bus1="82054305286917.1.2.3.4" phases=3 conn=Wye model=3 kv=0.380 kw=71.2784175594722 kvar=29.3562577980522 daily="CURVA" status=variable vmaxpu=1.5 vminpu=0.92
New "Load.M2_trf_5286918a" bus1="82053975286918.1.2.3.4" phases=3 conn=Wye model=3 kv=0.380 kw=60.9730084198819 kvar=25.1549769540668 daily="CURVA" status=variable vmaxpu=1.5 vminpu=0.92
New "Load.M2_trf_5286919a" bus1="82060535286919.1.2.3.4" phases=3 conn=Wye model=3 kv=0.380 kw=32.6620934801503 kvar=13.4705149937224 daily="CURVA" status=variable vmaxpu=1.5 vminpu=0.92
New "Load.M2_trf_5286930a" bus1="82049375286930.1.2.3.4" phases=3 conn=Wye model=3 kv=0.380 kw=36.395359228653 kvar=14.9729973303959 daily="CURVA" status=variable vmaxpu=1.5 vminpu=0.92
New "Load.M2_trf_5286931a" bus1="82049545286931.1.2.3.4" phases=3 conn=Wye model=3 kv=0.380 kw=71.952332566572 kvar=29.3201183089738 daily="CURVA" status=variable vmaxpu=1.5 vminpu=0.92
New "Load.M2_trf_5286932a" bus1="82049765286932.1.2.3.4" phases=3 conn=Wye model=3 kv=0.380 kw=21.4004517591302 kvar=8.89140893725184 daily="CURVA" status=variable vmaxpu=1.5 vminpu=0.92
New "Load.M2_trf_5286933a" bus1="82049805286933.1.2.3.4" phases=3 conn=Wye model=3 kv=0.380 kw=48.469236625593 kvar=19.9648490253905 daily="CURVA" status=variable vmaxpu=1.5 vminpu=0.92
New "Load.M2_trf_5286934a" bus1="82049885286934.1.2.3.4" phases=3 conn=Wye model=3 kv=0.380 kw=75.8399471021033 kvar=31.5748404139891 daily="CURVA" status=variable vmaxpu=1.5 vminpu=0.92
New "Load.M2_trf_5286935a" bus1="82050325286935.1.2.3.4" phases=3 conn=Wye model=3 kv=0.380 kw=14.7757431817661 kvar=6.06597608448969 daily="CURVA" status=variable vmaxpu=1.5 vminpu=0.92
New "Load.M2_trf_5286936a" bus1="82049975286936.1.2.3.4" phases=3 conn=Wye model=3 kv=0.380 kw=34.0576068084222 kvar=13.8403286926645 daily="CURVA" status=variable vmaxpu=1.5 vminpu=0.92
New "Load.M2_trf_5286937a" bus1="82050035286937.1.2.3.4" phases=3 conn=Wye model=3 kv=0.380 kw=12.3638230511661 kvar=5.07303007807456 daily="CURVA" status=variable vmaxpu=1.5 vminpu=0.92
New "Load.M2_trf_5286938a" bus1="82050465286938.1.2.3.4" phases=3 conn=Wye model=3 kv=0.380 kw=44.0151445881862 kvar=18.1697876916491 daily="CURVA" status=variable vmaxpu=1.5 vminpu=0.92
New "Load.M2_trf_5286939a" bus1="82039815286939.1.2.3.4" phases=3 conn=Wye model=3 kv=0.380 kw=25.0046199195118 kvar=10.2676681648854 daily="CURVA" status=variable vmaxpu=1.5 vminpu=0.92
New "Load.M2_trf_5286940a" bus1="82039945286940.1.2.3.4" phases=3 conn=Wye model=3 kv=0.380 kw=31.717936349781 kvar=12.9577255819414 daily="CURVA" status=variable vmaxpu=1.5 vminpu=0.92
New "Load.M2_trf_5286941a" bus1="82040015286941.1.2.3.4" phases=3 conn=Wye model=3 kv=0.380 kw=39.7831069364883 kvar=16.2880826342641 daily="CURVA" status=variable vmaxpu=1.5 vminpu=0.92
New "Load.M2_trf_5286942a" bus1="82040165286942.1.2.3.4" phases=3 conn=Wye model=3 kv=0.380 kw=17.3062222377338 kvar=7.11447969154188 daily="CURVA" status=variable vmaxpu=1.5 vminpu=0.92
New "Load.M2_trf_5286943a" bus1="82040265286943.1.2.3.4" phases=3 conn=Wye model=3 kv=0.380 kw=14.9334373145522 kvar=6.11623063356568 daily="CURVA" status=variable vmaxpu=1.5 vminpu=0.92
New "Load.M2_trf_5286944a" bus1="82039725286944.1.2.3.4" phases=3 conn=Wye model=3 kv=0.380 kw=20.1897945096935 kvar=8.29670113478765 daily="CURVA" status=variable vmaxpu=1.5 vminpu=0.92
New "Load.M2_trf_5286945a" bus1="82040415286945.1.2.3.4" phases=3 conn=Wye model=3 kv=0.380 kw=40.7040481176564 kvar=16.7195972681503 daily="CURVA" status=variable vmaxpu=1.5 vminpu=0.92
New "Load.M2_trf_5286946a" bus1="82040575286946.1.2.3.4" phases=3 conn=Wye model=3 kv=0.380 kw=21.8081331119338 kvar=8.93662925319315 daily="CURVA" status=variable vmaxpu=1.5 vminpu=0.92
New "Load.M2_trf_5440862a" bus1="81479715440862.1.2.3.4" phases=3 conn=Wye model=3 kv=0.380 kw=37.6656283386258 kvar=15.4703819881149 daily="CURVA" status=variable vmaxpu=1.5 vminpu=0.92
New "Load.M2_trf_5469845a" bus1="82032105469845.1.2.3.4" phases=3 conn=Wye model=3 kv=0.380 kw=21.1737551323393 kvar=8.6343938737132 daily="CURVA" status=variable vmaxpu=1.5 vminpu=0.92
New "Load.M2_trf_5470133a" bus1="82034125470133.1.2.3.4" phases=3 conn=Wye model=3 kv=0.380 kw=17.3588841879069 kvar=7.08810102140847 daily="CURVA" status=variable vmaxpu=1.5 vminpu=0.92
New "Load.M2_trf_5472282a" bus1="87774405472282.1.2.3.4" phases=3 conn=Wye model=3 kv=0.380 kw=12.324671898623 kvar=5.17294653612829 daily="CURVA" status=variable vmaxpu=1.5 vminpu=0.92
New "Load.M2_trf_5479360a" bus1="81460535479360.1.2.3.4" phases=3 conn=Wye model=3 kv=0.380 kw=13.1535229183727 kvar=5.43174732703659 daily="CURVA" status=variable vmaxpu=1.5 vminpu=0.92
New "Load.M2_trf_5491509a" bus1="88287355491509.1.2.3.4" phases=3 conn=Wye model=3 kv=0.380 kw=13.3737273361789 kvar=5.51203568938512 daily="CURVA" status=variable vmaxpu=1.5 vminpu=0.92
New "Load.M2_trf_5499009a" bus1="82062715499009.1.2.3.4" phases=3 conn=Wye model=3 kv=0.380 kw=34.561625069991 kvar=14.1597656990213 daily="CURVA" status=variable vmaxpu=1.5 vminpu=0.92
New "Load.M2_trf_5485359a" bus1="88109845485359.1.2.3.4" phases=3 conn=Wye model=3 kv=0.380 kw=13.1035592197738 kvar=5.40685056612744 daily="CURVA" status=variable vmaxpu=1.5 vminpu=0.92
New "Load.M2_trf_5502834a" bus1="82026575502834.1.2.3.4" phases=3 conn=Wye model=3 kv=0.380 kw=39.7336484456996 kvar=16.2414512368331 daily="CURVA" status=variable vmaxpu=1.5 vminpu=0.92
New "Load.M2_trf_5505307a" bus1="82034555505307.1.2.3.4" phases=3 conn=Wye model=3 kv=0.380 kw=53.1460845445061 kvar=21.6825974882212 daily="CURVA" status=variable vmaxpu=1.5 vminpu=0.92
New "Load.M2_trf_5535535a" bus1="89701935535535.1.2.3.4" phases=3 conn=Wye model=3 kv=0.380 kw=27.3191120358072 kvar=11.2886180765739 daily="CURVA" status=variable vmaxpu=1.5 vminpu=0.92
New "Load.M2_trf_5537656a" bus1="89813615537656.1.2.3.4" phases=3 conn=Wye model=3 kv=0.380 kw=16.8927592702179 kvar=6.93502282518875 daily="CURVA" status=variable vmaxpu=1.5 vminpu=0.92
New "Load.M2_trf_5547722a" bus1="90017985547722.1.2.3.4" phases=3 conn=Wye model=3 kv=0.380 kw=18.11076913843 kvar=7.70120441196946 daily="CURVA" status=variable vmaxpu=1.5 vminpu=0.92
New "Load.M2_trf_5551754a" bus1="82061675551754.1.2.3.4" phases=3 conn=Wye model=3 kv=0.380 kw=24.4230255573396 kvar=10.0426072736071 daily="CURVA" status=variable vmaxpu=1.5 vminpu=0.92
New "Load.M2_trf_5552038a" bus1="90190165552038.1.2.3.4" phases=3 conn=Wye model=3 kv=0.380 kw=36.2234173093469 kvar=15.1540063895971 daily="CURVA" status=variable vmaxpu=1.5 vminpu=0.92
New "Load.M2_trf_5552309a" bus1="82024125552309.1.2.3.4" phases=3 conn=Wye model=3 kv=0.380 kw=28.4895544448695 kvar=11.7834505482511 daily="CURVA" status=variable vmaxpu=1.5 vminpu=0.92
New "Load.M2_trf_5552553a" bus1="90214315552553.1.2.3.4" phases=3 conn=Wye model=3 kv=0.380 kw=8.5440754935843 kvar=3.53590174423291 daily="CURVA" status=variable vmaxpu=1.5 vminpu=0.92
New "Load.M2_trf_5552819a" bus1="82032765552819.1.2.3.4" phases=3 conn=Wye model=3 kv=0.380 kw=78.3294064635176 kvar=31.797245613752 daily="CURVA" status=variable vmaxpu=1.5 vminpu=0.92
New "Load.M2_trf_5569878a" bus1="82055955569878.1.2.3.4" phases=3 conn=Wye model=3 kv=0.380 kw=37.1461462066849 kvar=15.1409309366441 daily="CURVA" status=variable vmaxpu=1.5 vminpu=0.92
New "Load.M2_trf_5555964a" bus1="90305705555964.1.2.3.4" phases=3 conn=Wye model=3 kv=0.380 kw=12.7905177764678 kvar=5.47714088975999 daily="CURVA" status=variable vmaxpu=1.5 vminpu=0.92
New "Load.M2_trf_5557353a" bus1="82044325557353.1.2.3.4" phases=3 conn=Wye model=3 kv=0.380 kw=40.5233702974044 kvar=16.7339252495174 daily="CURVA" status=variable vmaxpu=1.5 vminpu=0.92
New "Load.M2_trf_5558213a" bus1="90349975558213.1.2.3.4" phases=3 conn=Wye model=3 kv=0.380 kw=27.4890090994599 kvar=11.3204635875338 daily="CURVA" status=variable vmaxpu=1.5 vminpu=0.92
New "Load.M2_trf_5560489a" bus1="90409505560489.1.2.3.4" phases=3 conn=Wye model=3 kv=0.380 kw=31.4133714177761 kvar=12.9698696753416 daily="CURVA" status=variable vmaxpu=1.5 vminpu=0.92
New "Load.M2_trf_5574596a" bus1="82031945574596.1.2.3.4" phases=3 conn=Wye model=3 kv=0.380 kw=33.1792816454948 kvar=13.599891199992 daily="CURVA" status=variable vmaxpu=1.5 vminpu=0.92
New "Load.M2_trf_5577671a" bus1="90938795577671.1.2.3.4" phases=3 conn=Wye model=3 kv=0.380 kw=27.1772921118141 kvar=11.1428217928275 daily="CURVA" status=variable vmaxpu=1.5 vminpu=0.92
New "Load.M2_trf_5286947a" bus1="82040855286947.1.2.3.4" phases=3 conn=Wye model=3 kv=0.380 kw=16.9247890020665 kvar=6.9426114116375 daily="CURVA" status=variable vmaxpu=1.5 vminpu=0.92
New "Load.M2_trf_5286958a" bus1="82031405286958.1.2.3.4" phases=3 conn=Wye model=3 kv=0.380 kw=50.0468628415785 kvar=20.571609151076 daily="CURVA" status=variable vmaxpu=1.5 vminpu=0.92
New "Load.M2_trf_5286959a" bus1="82031445286959.1.2.3.4" phases=3 conn=Wye model=3 kv=0.380 kw=62.6506632281017 kvar=26.1195614531882 daily="CURVA" status=variable vmaxpu=1.5 vminpu=0.92
New "Load.M2_trf_5286960a" bus1="82033945286960.1.2.3.4" phases=3 conn=Wye model=3 kv=0.380 kw=45.0856006484345 kvar=18.2124602207654 daily="CURVA" status=variable vmaxpu=1.5 vminpu=0.92
New "Load.M2_trf_5286961a" bus1="97400945286961.1.2.3.4" phases=3 conn=Wye model=3 kv=0.380 kw=65.6930382938628 kvar=27.0449553935935 daily="CURVA" status=variable vmaxpu=1.5 vminpu=0.92
New "Load.M2_trf_5286962a" bus1="82034445286962.1.2.3.4" phases=3 conn=Wye model=3 kv=0.380 kw=22.4837564006888 kvar=9.25935732908167 daily="CURVA" status=variable vmaxpu=1.5 vminpu=0.92
New "Load.M2_trf_5286963a" bus1="82035255286963.1.2.3.4" phases=3 conn=Wye model=3 kv=0.380 kw=29.7788653783111 kvar=12.1980174013987 daily="CURVA" status=variable vmaxpu=1.5 vminpu=0.92
New "Load.M2_trf_5286964a" bus1="82036275286964.1.2.3.4" phases=3 conn=Wye model=3 kv=0.380 kw=104.266786151826 kvar=43.8481092372413 daily="CURVA" status=variable vmaxpu=1.5 vminpu=0.92
New "Load.M2_trf_5286965a" bus1="82035485286965.1.2.3.4" phases=3 conn=Wye model=3 kv=0.380 kw=52.6130593888761 kvar=21.8039514409364 daily="CURVA" status=variable vmaxpu=1.5 vminpu=0.92
New "Load.M2_trf_5286966a" bus1="82036045286966.1.2.3.4" phases=3 conn=Wye model=3 kv=0.380 kw=46.6363060087169 kvar=19.3550948013781 daily="CURVA" status=variable vmaxpu=1.5 vminpu=0.92
New "Load.M2_trf_5286967a" bus1="82029725286967.1.2.3.4" phases=3 conn=Wye model=3 kv=0.380 kw=16.7370513681062 kvar=6.8544397385898 daily="CURVA" status=variable vmaxpu=1.5 vminpu=0.92
New "Load.M2_trf_5647498a" bus1="93119985647498.1.2.3.4" phases=3 conn=Wye model=3 kv=0.380 kw=1.28527358139795 kvar=0.534392376112595 daily="CURVA" status=variable vmaxpu=1.5 vminpu=0.92
New "Load.M2_trf_5688575a" bus1="82054155688575.1.2.3.4" phases=3 conn=Wye model=3 kv=0.380 kw=24.460362806299 kvar=9.83689503549256 daily="CURVA" status=variable vmaxpu=1.5 vminpu=0.92
New "Load.M2_trf_5675373a" bus1="93945325675373.1.2.3.4" phases=3 conn=Wye model=3 kv=0.380 kw=17.8137771729183 kvar=7.39293956036165 daily="CURVA" status=variable vmaxpu=1.5 vminpu=0.92
New "Load.M2_trf_5323939a" bus1="84503635323939.1.2.3.4" phases=3 conn=Wye model=3 kv=0.380 kw=19.9614815020279 kvar=8.23821544111136 daily="CURVA" status=variable vmaxpu=1.5 vminpu=0.92
New "Load.M2_trf_5702287a" bus1="90017935702287.1.2.3.4" phases=3 conn=Wye model=3 kv=0.380 kw=0.350556078594455 kvar=0.150017319569529 daily="CURVA" status=variable vmaxpu=1.5 vminpu=0.92
New "Load.M2_trf_5713817a" bus1="82034385713817.1.2.3.4" phases=3 conn=Wye model=3 kv=0.380 kw=10.1894765632394 kvar=4.30596865953908 daily="CURVA" status=variable vmaxpu=1.5 vminpu=0.92
New "Load.M2_trf_5719448a" bus1="95141555719448.1.2.3.4" phases=3 conn=Wye model=3 kv=0.380 kw=11.8484696296223 kvar=5.00147955159078 daily="CURVA" status=variable vmaxpu=1.5 vminpu=0.92
New "Load.M2_trf_5333902a" bus1="85167275333902.1.2.3.4" phases=3 conn=Wye model=3 kv=0.380 kw=39.5474205977726 kvar=16.2863197090099 daily="CURVA" status=variable vmaxpu=1.5 vminpu=0.92
New "Load.M2_trf_5740255a" bus1="82056945740255.1.2.3.4" phases=3 conn=Wye model=3 kv=0.380 kw=22.0023149223653 kvar=8.91852868146818 daily="CURVA" status=variable vmaxpu=1.5 vminpu=0.92
New "Load.M2_trf_5740270a" bus1="96033635740270.1.2.3.4" phases=3 conn=Wye model=3 kv=0.380 kw=18.4645500884766 kvar=7.50208762180274 daily="CURVA" status=variable vmaxpu=1.5 vminpu=0.92
New "Load.M2_trf_5744153a" bus1="96264655744153.1.2.3.4" phases=3 conn=Wye model=3 kv=0.380 kw=24.7792017800223 kvar=10.2284090783227 daily="CURVA" status=variable vmaxpu=1.5 vminpu=0.92
New "Load.M2_trf_5444435a" bus1="81481405444435.1.2.3.4" phases=3 conn=Wye model=3 kv=0.380 kw=16.7239220692027 kvar=6.79733721799333 daily="CURVA" status=variable vmaxpu=1.5 vminpu=0.92

New "Load.M1_trf_5286699a" bus1="82034475286699.1.2.3.4" phases=3 conn=Wye model=2 kv=0.380 kw=0.405389363420036 kvar=0.173831896895871 daily="CURVA" status=variable vmaxpu=1.5 vminpu=0.92
New "Load.M1_trf_5286707a" bus1="82034835286707.1.2.3.4" phases=3 conn=Wye model=2 kv=0.380 kw=20.052047936694 kvar=8.60830609881913 daily="CURVA" status=variable vmaxpu=1.5 vminpu=0.92
New "Load.M1_trf_5286708a" bus1="82034845286708.1.2.3.4" phases=3 conn=Wye model=2 kv=0.380 kw=1.76186476072819 kvar=0.764361282819509 daily="CURVA" status=variable vmaxpu=1.5 vminpu=0.92
New "Load.M1_trf_5286718a" bus1="82053655286718.1.2.3.4" phases=3 conn=Wye model=2 kv=0.380 kw=3.45523324597505 kvar=1.43528560841133 daily="CURVA" status=variable vmaxpu=1.5 vminpu=0.92
New "Load.M1_trf_5286787a" bus1="82023305286787.1.2.3.4" phases=3 conn=Wye model=2 kv=0.380 kw=44.8128304706051 kvar=18.6039419601603 daily="CURVA" status=variable vmaxpu=1.5 vminpu=0.92
New "Load.M1_trf_5286788a" bus1="82023395286788.1.2.3.4" phases=3 conn=Wye model=2 kv=0.380 kw=73.7933154748338 kvar=30.0401187982687 daily="CURVA" status=variable vmaxpu=1.5 vminpu=0.92
New "Load.M1_trf_5286789a" bus1="82022295286789.1.2.3.4" phases=3 conn=Wye model=2 kv=0.380 kw=29.4037790868283 kvar=12.1704751102318 daily="CURVA" status=variable vmaxpu=1.5 vminpu=0.92
New "Load.M1_trf_5286790a" bus1="82022455286790.1.2.3.4" phases=3 conn=Wye model=2 kv=0.380 kw=46.7094597123517 kvar=19.4980228286966 daily="CURVA" status=variable vmaxpu=1.5 vminpu=0.92
New "Load.M1_trf_5286791a" bus1="82022605286791.1.2.3.4" phases=3 conn=Wye model=2 kv=0.380 kw=53.9680275654443 kvar=22.3515260804093 daily="CURVA" status=variable vmaxpu=1.5 vminpu=0.92
New "Load.M1_trf_5286792a" bus1="82019965286792.1.2.3.4" phases=3 conn=Wye model=2 kv=0.380 kw=44.6192741238079 kvar=18.4172875611029 daily="CURVA" status=variable vmaxpu=1.5 vminpu=0.92
New "Load.M1_trf_5286793a" bus1="82020055286793.1.2.3.4" phases=3 conn=Wye model=2 kv=0.380 kw=27.1344376259054 kvar=11.2225550342363 daily="CURVA" status=variable vmaxpu=1.5 vminpu=0.92
New "Load.M1_trf_5286794a" bus1="82020175286794.1.2.3.4" phases=3 conn=Wye model=2 kv=0.380 kw=66.0839643414159 kvar=27.3520602481018 daily="CURVA" status=variable vmaxpu=1.5 vminpu=0.92
New "Load.M1_trf_5286795a" bus1="82020405286795.1.2.3.4" phases=3 conn=Wye model=2 kv=0.380 kw=47.3457601269348 kvar=19.6948906690984 daily="CURVA" status=variable vmaxpu=1.5 vminpu=0.92
New "Load.M1_trf_5286796a" bus1="82020555286796.1.2.3.4" phases=3 conn=Wye model=2 kv=0.380 kw=36.4744620844138 kvar=15.1013372476957 daily="CURVA" status=variable vmaxpu=1.5 vminpu=0.92
New "Load.M1_trf_5286797a" bus1="82020675286797.1.2.3.4" phases=3 conn=Wye model=2 kv=0.380 kw=23.3779623215367 kvar=9.71819942410976 daily="CURVA" status=variable vmaxpu=1.5 vminpu=0.92
New "Load.M1_trf_5286798a" bus1="82021885286798.1.2.3.4" phases=3 conn=Wye model=2 kv=0.380 kw=27.3827644047006 kvar=11.338275915727 daily="CURVA" status=variable vmaxpu=1.5 vminpu=0.92
New "Load.M1_trf_5286799a" bus1="82021995286799.1.2.3.4" phases=3 conn=Wye model=2 kv=0.380 kw=55.897825551802 kvar=23.0385118616115 daily="CURVA" status=variable vmaxpu=1.5 vminpu=0.92
New "Load.M1_trf_5286800a" bus1="82024325286800.1.2.3.4" phases=3 conn=Wye model=2 kv=0.380 kw=47.9716060686015 kvar=19.8549178198643 daily="CURVA" status=variable vmaxpu=1.5 vminpu=0.92
New "Load.M1_trf_5286801a" bus1="82022225286801.1.2.3.4" phases=3 conn=Wye model=2 kv=0.380 kw=33.9425402989092 kvar=14.0571646055584 daily="CURVA" status=variable vmaxpu=1.5 vminpu=0.92
New "Load.M1_trf_5286802a" bus1="82021615286802.1.2.3.4" phases=3 conn=Wye model=2 kv=0.380 kw=29.0201410912608 kvar=11.967545432086 daily="CURVA" status=variable vmaxpu=1.5 vminpu=0.92
New "Load.M1_trf_5286803a" bus1="82036745286803.1.2.3.4" phases=3 conn=Wye model=2 kv=0.380 kw=55.6845721961986 kvar=22.6674620418392 daily="CURVA" status=variable vmaxpu=1.5 vminpu=0.92
New "Load.M1_trf_5286804a" bus1="82033055286804.1.2.3.4" phases=3 conn=Wye model=2 kv=0.380 kw=51.2258697352658 kvar=20.8361894858432 daily="CURVA" status=variable vmaxpu=1.5 vminpu=0.92
New "Load.M1_trf_5286805a" bus1="82033395286805.1.2.3.4" phases=3 conn=Wye model=2 kv=0.380 kw=34.4208791542866 kvar=14.1101828000659 daily="CURVA" status=variable vmaxpu=1.5 vminpu=0.92
New "Load.M1_trf_5286806a" bus1="82024965286806.1.2.3.4" phases=3 conn=Wye model=2 kv=0.380 kw=44.3458303579934 kvar=18.5471022063812 daily="CURVA" status=variable vmaxpu=1.5 vminpu=0.92
New "Load.M1_trf_5286807a" bus1="90855665286807.1.2.3.4" phases=3 conn=Wye model=2 kv=0.380 kw=62.3196862417035 kvar=25.7181244488195 daily="CURVA" status=variable vmaxpu=1.5 vminpu=0.92
New "Load.M1_trf_5286808a" bus1="82027905286808.1.2.3.4" phases=3 conn=Wye model=2 kv=0.380 kw=63.0183397934424 kvar=25.5879323431648 daily="CURVA" status=variable vmaxpu=1.5 vminpu=0.92
New "Load.M1_trf_5286809a" bus1="82028045286809.1.2.3.4" phases=3 conn=Wye model=2 kv=0.380 kw=44.0256252258354 kvar=18.0978526149094 daily="CURVA" status=variable vmaxpu=1.5 vminpu=0.92
New "Load.M1_trf_5286810a" bus1="82028035286810.1.2.3.4" phases=3 conn=Wye model=2 kv=0.380 kw=71.8934457434324 kvar=30.0218894714263 daily="CURVA" status=variable vmaxpu=1.5 vminpu=0.92
New "Load.M1_trf_5286811a" bus1="82026685286811.1.2.3.4" phases=3 conn=Wye model=2 kv=0.380 kw=54.2854098168444 kvar=22.4528722428252 daily="CURVA" status=variable vmaxpu=1.5 vminpu=0.92
New "Load.M1_trf_5286812a" bus1="82026915286812.1.2.3.4" phases=3 conn=Wye model=2 kv=0.380 kw=93.8793558375779 kvar=39.0074886750883 daily="CURVA" status=variable vmaxpu=1.5 vminpu=0.92
New "Load.M1_trf_5286813a" bus1="82028365286813.1.2.3.4" phases=3 conn=Wye model=2 kv=0.380 kw=25.237012867825 kvar=10.4018429820147 daily="CURVA" status=variable vmaxpu=1.5 vminpu=0.92
New "Load.M1_trf_5286814a" bus1="82027655286814.1.2.3.4" phases=3 conn=Wye model=2 kv=0.380 kw=56.7910319752806 kvar=23.4333538900187 daily="CURVA" status=variable vmaxpu=1.5 vminpu=0.92
New "Load.M1_trf_5286815a" bus1="82027735286815.1.2.3.4" phases=3 conn=Wye model=2 kv=0.380 kw=64.6226537637902 kvar=26.7605412167467 daily="CURVA" status=variable vmaxpu=1.5 vminpu=0.92
New "Load.M1_trf_5286816a" bus1="82029355286816.1.2.3.4" phases=3 conn=Wye model=2 kv=0.380 kw=52.9609781901296 kvar=22.0690478192221 daily="CURVA" status=variable vmaxpu=1.5 vminpu=0.92
New "Load.M1_trf_5286817a" bus1="82029275286817.1.2.3.4" phases=3 conn=Wye model=2 kv=0.380 kw=33.4394388336407 kvar=13.738454397339 daily="CURVA" status=variable vmaxpu=1.5 vminpu=0.92
New "Load.M1_trf_5286818a" bus1="82028855286818.1.2.3.4" phases=3 conn=Wye model=2 kv=0.380 kw=21.325328114059 kvar=8.73977416029709 daily="CURVA" status=variable vmaxpu=1.5 vminpu=0.92
New "Load.M1_trf_5286819a" bus1="82027135286819.1.2.3.4" phases=3 conn=Wye model=2 kv=0.380 kw=56.8837867917507 kvar=23.5045182310538 daily="CURVA" status=variable vmaxpu=1.5 vminpu=0.92
New "Load.M1_trf_5286820a" bus1="82026625286820.1.2.3.4" phases=3 conn=Wye model=2 kv=0.380 kw=38.1896044242221 kvar=15.6670250254407 daily="CURVA" status=variable vmaxpu=1.5 vminpu=0.92
New "Load.M1_trf_5286821a" bus1="82025745286821.1.2.3.4" phases=3 conn=Wye model=2 kv=0.380 kw=76.1643450020182 kvar=31.7081741088572 daily="CURVA" status=variable vmaxpu=1.5 vminpu=0.92
New "Load.M1_trf_5286828a" bus1="82042655286828.1.2.3.4" phases=3 conn=Wye model=2 kv=0.380 kw=41.3848278502737 kvar=17.6193040893349 daily="CURVA" status=variable vmaxpu=1.5 vminpu=0.92
New "Load.M1_trf_5286829a" bus1="81490995286829.1.2.3.4" phases=3 conn=Wye model=2 kv=0.380 kw=23.4570200724372 kvar=9.7646671207329 daily="CURVA" status=variable vmaxpu=1.5 vminpu=0.92
New "Load.M1_trf_5286830a" bus1="81460505286830.1.2.3.4" phases=3 conn=Wye model=2 kv=0.380 kw=49.5711836482434 kvar=20.9585646270175 daily="CURVA" status=variable vmaxpu=1.5 vminpu=0.92
New "Load.M1_trf_5286831a" bus1="82043025286831.1.2.3.4" phases=3 conn=Wye model=2 kv=0.380 kw=41.1801958804568 kvar=17.1188745171834 daily="CURVA" status=variable vmaxpu=1.5 vminpu=0.92
New "Load.M1_trf_5286832a" bus1="82042575286832.1.2.3.4" phases=3 conn=Wye model=2 kv=0.380 kw=34.0305321073325 kvar=14.0222687513095 daily="CURVA" status=variable vmaxpu=1.5 vminpu=0.92
New "Load.M1_trf_5286833a" bus1="82041995286833.1.2.3.4" phases=3 conn=Wye model=2 kv=0.380 kw=45.0673595285952 kvar=18.5177602704256 daily="CURVA" status=variable vmaxpu=1.5 vminpu=0.92
New "Load.M1_trf_5286834a" bus1="82038095286834.1.2.3.4" phases=3 conn=Wye model=2 kv=0.380 kw=56.1506891143888 kvar=23.3661583053411 daily="CURVA" status=variable vmaxpu=1.5 vminpu=0.92
New "Load.M1_trf_5286835a" bus1="82038115286835.1.2.3.4" phases=3 conn=Wye model=2 kv=0.380 kw=46.9179762926698 kvar=19.389165294274 daily="CURVA" status=variable vmaxpu=1.5 vminpu=0.92
New "Load.M1_trf_5286836a" bus1="82041105286836.1.2.3.4" phases=3 conn=Wye model=2 kv=0.380 kw=29.9776654289574 kvar=12.3361899305318 daily="CURVA" status=variable vmaxpu=1.5 vminpu=0.92
New "Load.M1_trf_5286837a" bus1="82041215286837.1.2.3.4" phases=3 conn=Wye model=2 kv=0.380 kw=16.5164576965569 kvar=6.86676404513054 daily="CURVA" status=variable vmaxpu=1.5 vminpu=0.92
New "Load.M1_trf_5286838a" bus1="82041905286838.1.2.3.4" phases=3 conn=Wye model=2 kv=0.380 kw=31.6017861682583 kvar=13.0373114609741 daily="CURVA" status=variable vmaxpu=1.5 vminpu=0.92
New "Load.M1_trf_5286839a" bus1="82038825286839.1.2.3.4" phases=3 conn=Wye model=2 kv=0.380 kw=45.7031841120619 kvar=18.9588555046348 daily="CURVA" status=variable vmaxpu=1.5 vminpu=0.92
New "Load.M1_trf_5286840a" bus1="82037555286840.1.2.3.4" phases=3 conn=Wye model=2 kv=0.380 kw=65.1506647474598 kvar=27.1718038350901 daily="CURVA" status=variable vmaxpu=1.5 vminpu=0.92
New "Load.M1_trf_5286841a" bus1="82039455286841.1.2.3.4" phases=3 conn=Wye model=2 kv=0.380 kw=39.2675737058467 kvar=16.1903503105183 daily="CURVA" status=variable vmaxpu=1.5 vminpu=0.92
New "Load.M1_trf_5286842a" bus1="82039695286842.1.2.3.4" phases=3 conn=Wye model=2 kv=0.380 kw=42.3230287962255 kvar=17.420693773801 daily="CURVA" status=variable vmaxpu=1.5 vminpu=0.92
New "Load.M1_trf_5286843a" bus1="82042105286843.1.2.3.4" phases=3 conn=Wye model=2 kv=0.380 kw=32.2763961026125 kvar=13.3524742551641 daily="CURVA" status=variable vmaxpu=1.5 vminpu=0.92
New "Load.M1_trf_5286844a" bus1="82042165286844.1.2.3.4" phases=3 conn=Wye model=2 kv=0.380 kw=29.8024446144808 kvar=12.3213854439987 daily="CURVA" status=variable vmaxpu=1.5 vminpu=0.92
New "Load.M1_trf_5286845a" bus1="82042275286845.1.2.3.4" phases=3 conn=Wye model=2 kv=0.380 kw=41.0223091360664 kvar=16.8752187484894 daily="CURVA" status=variable vmaxpu=1.5 vminpu=0.92
New "Load.M1_trf_5286846a" bus1="82041545286846.1.2.3.4" phases=3 conn=Wye model=2 kv=0.380 kw=31.967990668893 kvar=13.136996471609 daily="CURVA" status=variable vmaxpu=1.5 vminpu=0.92
New "Load.M1_trf_5286857a" bus1="82062475286857.1.2.3.4" phases=3 conn=Wye model=2 kv=0.380 kw=56.2107318734055 kvar=23.1370575026421 daily="CURVA" status=variable vmaxpu=1.5 vminpu=0.92
New "Load.M1_trf_5286858a" bus1="82064145286858.1.2.3.4" phases=3 conn=Wye model=2 kv=0.380 kw=39.7923611420365 kvar=16.417040446768 daily="CURVA" status=variable vmaxpu=1.5 vminpu=0.92
New "Load.M1_trf_5286860a" bus1="82065235286860.1.2.3.4" phases=3 conn=Wye model=2 kv=0.380 kw=26.7223086202816 kvar=11.0438029153354 daily="CURVA" status=variable vmaxpu=1.5 vminpu=0.92
New "Load.M1_trf_5286861a" bus1="82064065286861.1.2.3.4" phases=3 conn=Wye model=2 kv=0.380 kw=31.4719384405526 kvar=12.9677858401915 daily="CURVA" status=variable vmaxpu=1.5 vminpu=0.92
New "Load.M1_trf_5286862a" bus1="82065285286862.1.2.3.4" phases=3 conn=Wye model=2 kv=0.380 kw=45.053381515456 kvar=18.4910389322263 daily="CURVA" status=variable vmaxpu=1.5 vminpu=0.92
New "Load.M1_trf_5286863a" bus1="82064825286863.1.2.3.4" phases=3 conn=Wye model=2 kv=0.380 kw=35.5534604411186 kvar=14.6963924217144 daily="CURVA" status=variable vmaxpu=1.5 vminpu=0.92
New "Load.M1_trf_5286864a" bus1="82064425286864.1.2.3.4" phases=3 conn=Wye model=2 kv=0.380 kw=36.1116533906913 kvar=14.912220603038 daily="CURVA" status=variable vmaxpu=1.5 vminpu=0.92
New "Load.M1_trf_5286865a" bus1="82065005286865.1.2.3.4" phases=3 conn=Wye model=2 kv=0.380 kw=35.4128337041904 kvar=14.582518196887 daily="CURVA" status=variable vmaxpu=1.5 vminpu=0.92
New "Load.M1_trf_5286866a" bus1="82063385286866.1.2.3.4" phases=3 conn=Wye model=2 kv=0.380 kw=45.3814361855401 kvar=18.686044474151 daily="CURVA" status=variable vmaxpu=1.5 vminpu=0.92
New "Load.M1_trf_5286867a" bus1="82044385286867.1.2.3.4" phases=3 conn=Wye model=2 kv=0.380 kw=42.7887042693829 kvar=17.4821836224431 daily="CURVA" status=variable vmaxpu=1.5 vminpu=0.92
New "Load.M1_trf_5286871a" bus1="82055725286871.1.2.3.4" phases=3 conn=Wye model=2 kv=0.380 kw=30.4859253690138 kvar=12.5221429006863 daily="CURVA" status=variable vmaxpu=1.5 vminpu=0.92
New "Load.M1_trf_5286872a" bus1="82054825286872.1.2.3.4" phases=3 conn=Wye model=2 kv=0.380 kw=28.7945764893302 kvar=11.6564350812364 daily="CURVA" status=variable vmaxpu=1.5 vminpu=0.92
New "Load.M1_trf_5286890a" bus1="82056915286890.1.2.3.4" phases=3 conn=Wye model=2 kv=0.380 kw=40.2045830875588 kvar=16.6013810449652 daily="CURVA" status=variable vmaxpu=1.5 vminpu=0.92
New "Load.M1_trf_5286891a" bus1="82056385286891.1.2.3.4" phases=3 conn=Wye model=2 kv=0.380 kw=39.9340716553015 kvar=16.5341109243348 daily="CURVA" status=variable vmaxpu=1.5 vminpu=0.92
New "Load.M1_trf_5286914a" bus1="82053635286914.1.2.3.4" phases=3 conn=Wye model=2 kv=0.380 kw=44.4938680491121 kvar=18.3133529739108 daily="CURVA" status=variable vmaxpu=1.5 vminpu=0.92
New "Load.M1_trf_5286915a" bus1="82054535286915.1.2.3.4" phases=3 conn=Wye model=2 kv=0.380 kw=37.0001686553022 kvar=15.1442451255588 daily="CURVA" status=variable vmaxpu=1.5 vminpu=0.92
New "Load.M1_trf_5286916a" bus1="82054235286916.1.2.3.4" phases=3 conn=Wye model=2 kv=0.380 kw=47.9118232887989 kvar=19.6191053104557 daily="CURVA" status=variable vmaxpu=1.5 vminpu=0.92
New "Load.M1_trf_5286917a" bus1="82054305286917.1.2.3.4" phases=3 conn=Wye model=2 kv=0.380 kw=71.2784175594722 kvar=29.3562577980522 daily="CURVA" status=variable vmaxpu=1.5 vminpu=0.92
New "Load.M1_trf_5286918a" bus1="82053975286918.1.2.3.4" phases=3 conn=Wye model=2 kv=0.380 kw=60.9730084198819 kvar=25.1549769540668 daily="CURVA" status=variable vmaxpu=1.5 vminpu=0.92
New "Load.M1_trf_5286919a" bus1="82060535286919.1.2.3.4" phases=3 conn=Wye model=2 kv=0.380 kw=32.6620934801503 kvar=13.4705149937224 daily="CURVA" status=variable vmaxpu=1.5 vminpu=0.92
New "Load.M1_trf_5286930a" bus1="82049375286930.1.2.3.4" phases=3 conn=Wye model=2 kv=0.380 kw=36.395359228653 kvar=14.9729973303959 daily="CURVA" status=variable vmaxpu=1.5 vminpu=0.92
New "Load.M1_trf_5286931a" bus1="82049545286931.1.2.3.4" phases=3 conn=Wye model=2 kv=0.380 kw=71.952332566572 kvar=29.3201183089738 daily="CURVA" status=variable vmaxpu=1.5 vminpu=0.92
New "Load.M1_trf_5286932a" bus1="82049765286932.1.2.3.4" phases=3 conn=Wye model=2 kv=0.380 kw=21.4004517591302 kvar=8.89140893725184 daily="CURVA" status=variable vmaxpu=1.5 vminpu=0.92
New "Load.M1_trf_5286933a" bus1="82049805286933.1.2.3.4" phases=3 conn=Wye model=2 kv=0.380 kw=48.469236625593 kvar=19.9648490253905 daily="CURVA" status=variable vmaxpu=1.5 vminpu=0.92
New "Load.M1_trf_5286934a" bus1="82049885286934.1.2.3.4" phases=3 conn=Wye model=2 kv=0.380 kw=75.8399471021033 kvar=31.5748404139891 daily="CURVA" status=variable vmaxpu=1.5 vminpu=0.92
New "Load.M1_trf_5286935a" bus1="82050325286935.1.2.3.4" phases=3 conn=Wye model=2 kv=0.380 kw=14.7757431817661 kvar=6.06597608448969 daily="CURVA" status=variable vmaxpu=1.5 vminpu=0.92
New "Load.M1_trf_5286936a" bus1="82049975286936.1.2.3.4" phases=3 conn=Wye model=2 kv=0.380 kw=34.0576068084222 kvar=13.8403286926645 daily="CURVA" status=variable vmaxpu=1.5 vminpu=0.92
New "Load.M1_trf_5286937a" bus1="82050035286937.1.2.3.4" phases=3 conn=Wye model=2 kv=0.380 kw=12.3638230511661 kvar=5.07303007807456 daily="CURVA" status=variable vmaxpu=1.5 vminpu=0.92
New "Load.M1_trf_5286938a" bus1="82050465286938.1.2.3.4" phases=3 conn=Wye model=2 kv=0.380 kw=44.0151445881862 kvar=18.1697876916491 daily="CURVA" status=variable vmaxpu=1.5 vminpu=0.92
New "Load.M1_trf_5286939a" bus1="82039815286939.1.2.3.4" phases=3 conn=Wye model=2 kv=0.380 kw=25.0046199195118 kvar=10.2676681648854 daily="CURVA" status=variable vmaxpu=1.5 vminpu=0.92
New "Load.M1_trf_5286940a" bus1="82039945286940.1.2.3.4" phases=3 conn=Wye model=2 kv=0.380 kw=31.717936349781 kvar=12.9577255819414 daily="CURVA" status=variable vmaxpu=1.5 vminpu=0.92
New "Load.M1_trf_5286941a" bus1="82040015286941.1.2.3.4" phases=3 conn=Wye model=2 kv=0.380 kw=39.7831069364883 kvar=16.2880826342641 daily="CURVA" status=variable vmaxpu=1.5 vminpu=0.92
New "Load.M1_trf_5286942a" bus1="82040165286942.1.2.3.4" phases=3 conn=Wye model=2 kv=0.380 kw=17.3062222377338 kvar=7.11447969154188 daily="CURVA" status=variable vmaxpu=1.5 vminpu=0.92
New "Load.M1_trf_5286943a" bus1="82040265286943.1.2.3.4" phases=3 conn=Wye model=2 kv=0.380 kw=14.9334373145522 kvar=6.11623063356568 daily="CURVA" status=variable vmaxpu=1.5 vminpu=0.92
New "Load.M1_trf_5286944a" bus1="82039725286944.1.2.3.4" phases=3 conn=Wye model=2 kv=0.380 kw=20.1897945096935 kvar=8.29670113478765 daily="CURVA" status=variable vmaxpu=1.5 vminpu=0.92
New "Load.M1_trf_5286945a" bus1="82040415286945.1.2.3.4" phases=3 conn=Wye model=2 kv=0.380 kw=40.7040481176564 kvar=16.7195972681503 daily="CURVA" status=variable vmaxpu=1.5 vminpu=0.92
New "Load.M1_trf_5286946a" bus1="82040575286946.1.2.3.4" phases=3 conn=Wye model=2 kv=0.380 kw=21.8081331119338 kvar=8.93662925319315 daily="CURVA" status=variable vmaxpu=1.5 vminpu=0.92
New "Load.M1_trf_5440862a" bus1="81479715440862.1.2.3.4" phases=3 conn=Wye model=2 kv=0.380 kw=37.6656283386258 kvar=15.4703819881149 daily="CURVA" status=variable vmaxpu=1.5 vminpu=0.92
New "Load.M1_trf_5469845a" bus1="82032105469845.1.2.3.4" phases=3 conn=Wye model=2 kv=0.380 kw=21.1737551323393 kvar=8.6343938737132 daily="CURVA" status=variable vmaxpu=1.5 vminpu=0.92
New "Load.M1_trf_5470133a" bus1="82034125470133.1.2.3.4" phases=3 conn=Wye model=2 kv=0.380 kw=17.3588841879069 kvar=7.08810102140847 daily="CURVA" status=variable vmaxpu=1.5 vminpu=0.92
New "Load.M1_trf_5472282a" bus1="87774405472282.1.2.3.4" phases=3 conn=Wye model=2 kv=0.380 kw=12.324671898623 kvar=5.17294653612829 daily="CURVA" status=variable vmaxpu=1.5 vminpu=0.92
New "Load.M1_trf_5479360a" bus1="81460535479360.1.2.3.4" phases=3 conn=Wye model=2 kv=0.380 kw=13.1535229183727 kvar=5.43174732703659 daily="CURVA" status=variable vmaxpu=1.5 vminpu=0.92
New "Load.M1_trf_5491509a" bus1="88287355491509.1.2.3.4" phases=3 conn=Wye model=2 kv=0.380 kw=13.3737273361789 kvar=5.51203568938512 daily="CURVA" status=variable vmaxpu=1.5 vminpu=0.92
New "Load.M1_trf_5499009a" bus1="82062715499009.1.2.3.4" phases=3 conn=Wye model=2 kv=0.380 kw=34.561625069991 kvar=14.1597656990213 daily="CURVA" status=variable vmaxpu=1.5 vminpu=0.92
New "Load.M1_trf_5485359a" bus1="88109845485359.1.2.3.4" phases=3 conn=Wye model=2 kv=0.380 kw=13.1035592197738 kvar=5.40685056612744 daily="CURVA" status=variable vmaxpu=1.5 vminpu=0.92
New "Load.M1_trf_5502834a" bus1="82026575502834.1.2.3.4" phases=3 conn=Wye model=2 kv=0.380 kw=39.7336484456996 kvar=16.2414512368331 daily="CURVA" status=variable vmaxpu=1.5 vminpu=0.92
New "Load.M1_trf_5505307a" bus1="82034555505307.1.2.3.4" phases=3 conn=Wye model=2 kv=0.380 kw=53.1460845445061 kvar=21.6825974882212 daily="CURVA" status=variable vmaxpu=1.5 vminpu=0.92
New "Load.M1_trf_5535535a" bus1="89701935535535.1.2.3.4" phases=3 conn=Wye model=2 kv=0.380 kw=27.3191120358072 kvar=11.2886180765739 daily="CURVA" status=variable vmaxpu=1.5 vminpu=0.92
New "Load.M1_trf_5537656a" bus1="89813615537656.1.2.3.4" phases=3 conn=Wye model=2 kv=0.380 kw=16.8927592702179 kvar=6.93502282518875 daily="CURVA" status=variable vmaxpu=1.5 vminpu=0.92
New "Load.M1_trf_5547722a" bus1="90017985547722.1.2.3.4" phases=3 conn=Wye model=2 kv=0.380 kw=18.11076913843 kvar=7.70120441196946 daily="CURVA" status=variable vmaxpu=1.5 vminpu=0.92
New "Load.M1_trf_5551754a" bus1="82061675551754.1.2.3.4" phases=3 conn=Wye model=2 kv=0.380 kw=24.4230255573396 kvar=10.0426072736071 daily="CURVA" status=variable vmaxpu=1.5 vminpu=0.92
New "Load.M1_trf_5552038a" bus1="90190165552038.1.2.3.4" phases=3 conn=Wye model=2 kv=0.380 kw=36.2234173093469 kvar=15.1540063895971 daily="CURVA" status=variable vmaxpu=1.5 vminpu=0.92
New "Load.M1_trf_5552309a" bus1="82024125552309.1.2.3.4" phases=3 conn=Wye model=2 kv=0.380 kw=28.4895544448695 kvar=11.7834505482511 daily="CURVA" status=variable vmaxpu=1.5 vminpu=0.92
New "Load.M1_trf_5552553a" bus1="90214315552553.1.2.3.4" phases=3 conn=Wye model=2 kv=0.380 kw=8.5440754935843 kvar=3.53590174423291 daily="CURVA" status=variable vmaxpu=1.5 vminpu=0.92
New "Load.M1_trf_5552819a" bus1="82032765552819.1.2.3.4" phases=3 conn=Wye model=2 kv=0.380 kw=78.3294064635176 kvar=31.797245613752 daily="CURVA" status=variable vmaxpu=1.5 vminpu=0.92
New "Load.M1_trf_5569878a" bus1="82055955569878.1.2.3.4" phases=3 conn=Wye model=2 kv=0.380 kw=37.1461462066849 kvar=15.1409309366441 daily="CURVA" status=variable vmaxpu=1.5 vminpu=0.92
New "Load.M1_trf_5555964a" bus1="90305705555964.1.2.3.4" phases=3 conn=Wye model=2 kv=0.380 kw=12.7905177764678 kvar=5.47714088975999 daily="CURVA" status=variable vmaxpu=1.5 vminpu=0.92
New "Load.M1_trf_5557353a" bus1="82044325557353.1.2.3.4" phases=3 conn=Wye model=2 kv=0.380 kw=40.5233702974044 kvar=16.7339252495174 daily="CURVA" status=variable vmaxpu=1.5 vminpu=0.92
New "Load.M1_trf_5558213a" bus1="90349975558213.1.2.3.4" phases=3 conn=Wye model=2 kv=0.380 kw=27.4890090994599 kvar=11.3204635875338 daily="CURVA" status=variable vmaxpu=1.5 vminpu=0.92
New "Load.M1_trf_5560489a" bus1="90409505560489.1.2.3.4" phases=3 conn=Wye model=2 kv=0.380 kw=31.4133714177761 kvar=12.9698696753416 daily="CURVA" status=variable vmaxpu=1.5 vminpu=0.92
New "Load.M1_trf_5574596a" bus1="82031945574596.1.2.3.4" phases=3 conn=Wye model=2 kv=0.380 kw=33.1792816454948 kvar=13.599891199992 daily="CURVA" status=variable vmaxpu=1.5 vminpu=0.92
New "Load.M1_trf_5577671a" bus1="90938795577671.1.2.3.4" phases=3 conn=Wye model=2 kv=0.380 kw=27.1772921118141 kvar=11.1428217928275 daily="CURVA" status=variable vmaxpu=1.5 vminpu=0.92
New "Load.M1_trf_5286947a" bus1="82040855286947.1.2.3.4" phases=3 conn=Wye model=2 kv=0.380 kw=16.9247890020665 kvar=6.9426114116375 daily="CURVA" status=variable vmaxpu=1.5 vminpu=0.92
New "Load.M1_trf_5286958a" bus1="82031405286958.1.2.3.4" phases=3 conn=Wye model=2 kv=0.380 kw=50.0468628415785 kvar=20.571609151076 daily="CURVA" status=variable vmaxpu=1.5 vminpu=0.92
New "Load.M1_trf_5286959a" bus1="82031445286959.1.2.3.4" phases=3 conn=Wye model=2 kv=0.380 kw=62.6506632281017 kvar=26.1195614531882 daily="CURVA" status=variable vmaxpu=1.5 vminpu=0.92
New "Load.M1_trf_5286960a" bus1="82033945286960.1.2.3.4" phases=3 conn=Wye model=2 kv=0.380 kw=45.0856006484345 kvar=18.2124602207654 daily="CURVA" status=variable vmaxpu=1.5 vminpu=0.92
New "Load.M1_trf_5286961a" bus1="97400945286961.1.2.3.4" phases=3 conn=Wye model=2 kv=0.380 kw=65.6930382938628 kvar=27.0449553935935 daily="CURVA" status=variable vmaxpu=1.5 vminpu=0.92
New "Load.M1_trf_5286962a" bus1="82034445286962.1.2.3.4" phases=3 conn=Wye model=2 kv=0.380 kw=22.4837564006888 kvar=9.25935732908167 daily="CURVA" status=variable vmaxpu=1.5 vminpu=0.92
New "Load.M1_trf_5286963a" bus1="82035255286963.1.2.3.4" phases=3 conn=Wye model=2 kv=0.380 kw=29.7788653783111 kvar=12.1980174013987 daily="CURVA" status=variable vmaxpu=1.5 vminpu=0.92
New "Load.M1_trf_5286964a" bus1="82036275286964.1.2.3.4" phases=3 conn=Wye model=2 kv=0.380 kw=104.266786151826 kvar=43.8481092372413 daily="CURVA" status=variable vmaxpu=1.5 vminpu=0.92
New "Load.M1_trf_5286965a" bus1="82035485286965.1.2.3.4" phases=3 conn=Wye model=2 kv=0.380 kw=52.6130593888761 kvar=21.8039514409364 daily="CURVA" status=variable vmaxpu=1.5 vminpu=0.92
New "Load.M1_trf_5286966a" bus1="82036045286966.1.2.3.4" phases=3 conn=Wye model=2 kv=0.380 kw=46.6363060087169 kvar=19.3550948013781 daily="CURVA" status=variable vmaxpu=1.5 vminpu=0.92
New "Load.M1_trf_5286967a" bus1="82029725286967.1.2.3.4" phases=3 conn=Wye model=2 kv=0.380 kw=16.7370513681062 kvar=6.8544397385898 daily="CURVA" status=variable vmaxpu=1.5 vminpu=0.92
New "Load.M1_trf_5647498a" bus1="93119985647498.1.2.3.4" phases=3 conn=Wye model=2 kv=0.380 kw=1.28527358139795 kvar=0.534392376112595 daily="CURVA" status=variable vmaxpu=1.5 vminpu=0.92
New "Load.M1_trf_5688575a" bus1="82054155688575.1.2.3.4" phases=3 conn=Wye model=2 kv=0.380 kw=24.460362806299 kvar=9.83689503549256 daily="CURVA" status=variable vmaxpu=1.5 vminpu=0.92
New "Load.M1_trf_5675373a" bus1="93945325675373.1.2.3.4" phases=3 conn=Wye model=2 kv=0.380 kw=17.8137771729183 kvar=7.39293956036165 daily="CURVA" status=variable vmaxpu=1.5 vminpu=0.92
New "Load.M1_trf_5323939a" bus1="84503635323939.1.2.3.4" phases=3 conn=Wye model=2 kv=0.380 kw=19.9614815020279 kvar=8.23821544111136 daily="CURVA" status=variable vmaxpu=1.5 vminpu=0.92
New "Load.M1_trf_5702287a" bus1="90017935702287.1.2.3.4" phases=3 conn=Wye model=2 kv=0.380 kw=0.350556078594455 kvar=0.150017319569529 daily="CURVA" status=variable vmaxpu=1.5 vminpu=0.92
New "Load.M1_trf_5713817a" bus1="82034385713817.1.2.3.4" phases=3 conn=Wye model=2 kv=0.380 kw=10.1894765632394 kvar=4.30596865953908 daily="CURVA" status=variable vmaxpu=1.5 vminpu=0.92
New "Load.M1_trf_5719448a" bus1="95141555719448.1.2.3.4" phases=3 conn=Wye model=2 kv=0.380 kw=11.8484696296223 kvar=5.00147955159078 daily="CURVA" status=variable vmaxpu=1.5 vminpu=0.92
New "Load.M1_trf_5333902a" bus1="85167275333902.1.2.3.4" phases=3 conn=Wye model=2 kv=0.380 kw=39.5474205977726 kvar=16.2863197090099 daily="CURVA" status=variable vmaxpu=1.5 vminpu=0.92
New "Load.M1_trf_5740255a" bus1="82056945740255.1.2.3.4" phases=3 conn=Wye model=2 kv=0.380 kw=22.0023149223653 kvar=8.91852868146818 daily="CURVA" status=variable vmaxpu=1.5 vminpu=0.92
New "Load.M1_trf_5740270a" bus1="96033635740270.1.2.3.4" phases=3 conn=Wye model=2 kv=0.380 kw=18.4645500884766 kvar=7.50208762180274 daily="CURVA" status=variable vmaxpu=1.5 vminpu=0.92
New "Load.M1_trf_5744153a" bus1="96264655744153.1.2.3.4" phases=3 conn=Wye model=2 kv=0.380 kw=24.7792017800223 kvar=10.2284090783227 daily="CURVA" status=variable vmaxpu=1.5 vminpu=0.92
New "Load.M1_trf_5444435a" bus1="81481405444435.1.2.3.4" phases=3 conn=Wye model=2 kv=0.380 kw=16.7239220692027 kvar=6.79733721799333 daily="CURVA" status=variable vmaxpu=1.5 vminpu=0.92
